Version 4
SHEET 1 1172 680
WIRE -528 -48 -656 -48
WIRE 512 -48 -528 -48
WIRE 704 -48 592 -48
WIRE 784 -48 768 -48
WIRE 912 -48 864 -48
WIRE 704 48 704 -48
WIRE 704 48 624 48
WIRE 768 48 768 -48
WIRE 768 48 704 48
WIRE 800 48 768 48
WIRE -432 64 -448 64
WIRE -304 64 -352 64
WIRE 416 64 240 64
WIRE 512 64 416 64
WIRE 624 64 624 48
WIRE 624 64 592 64
WIRE 912 64 912 -48
WIRE 912 64 864 64
WIRE 960 64 912 64
WIRE -528 80 -528 -48
WIRE 800 80 768 80
WIRE 128 112 -192 112
WIRE 416 112 416 64
WIRE 768 128 768 80
WIRE 128 144 128 112
WIRE -448 160 -448 64
WIRE -448 160 -528 160
WIRE -416 160 -448 160
WIRE -304 176 -304 64
WIRE -304 176 -352 176
WIRE 96 176 -304 176
WIRE 240 176 240 64
WIRE 240 176 160 176
WIRE -416 192 -448 192
WIRE 96 208 -32 208
WIRE -448 240 -448 192
WIRE -192 256 -192 112
WIRE -32 256 -32 208
WIRE 128 352 128 240
WIRE -192 368 -192 336
WIRE -32 368 -32 336
FLAG 960 144 0
FLAG 416 192 0
FLAG -192 368 0
FLAG 768 128 0
FLAG -32 368 0
FLAG -656 32 0
FLAG -448 240 0
FLAG 128 432 0
SYMBOL Dig_Add\\CD4xxx\\cd4066 128 192 R0
SYMATTR InstName U1
SYMBOL res 400 96 R0
SYMATTR InstName R1
SYMATTR Value 10Meg
SYMBOL res 608 48 R90
WINDOW 0 0 56 VBottom 2
WINDOW 3 32 56 VTop 2
SYMATTR InstName R2
SYMATTR Value 10k
SYMBOL res 608 -64 R90
WINDOW 0 0 56 VBottom 2
WINDOW 3 32 56 VTop 2
SYMATTR InstName R3
SYMATTR Value 10k
SYMBOL res 880 -64 R90
WINDOW 0 0 56 VBottom 2
WINDOW 3 32 56 VTop 2
SYMATTR InstName R4
SYMATTR Value 10k
SYMBOL Opamps\\opamp 832 0 R0
SYMATTR InstName U2
SYMBOL res 944 48 R0
SYMATTR InstName R5
SYMATTR Value 100k
SYMBOL voltage -192 240 R0
WINDOW 123 0 0 Left 2
WINDOW 39 0 0 Left 2
SYMATTR InstName V1
SYMATTR Value 10
SYMBOL voltage -32 240 R0
WINDOW 123 0 0 Left 2
WINDOW 39 0 0 Left 2
SYMATTR InstName V2
SYMATTR Value PULSE(0 10 0 .000000001 .000000001 .005 .01 10)
SYMBOL voltage -656 -64 R0
WINDOW 123 0 0 Left 2
WINDOW 39 0 0 Left 2
SYMATTR InstName V3
SYMATTR Value SINE(0 2 1k)
SYMBOL res -336 48 R90
WINDOW 0 0 56 VBottom 2
WINDOW 3 32 56 VTop 2
SYMATTR InstName R6
SYMATTR Value 50k
SYMBOL Opamps\\opamp -384 112 R0
SYMATTR InstName U3
SYMBOL res -544 64 R0
SYMATTR InstName R7
SYMATTR Value 100k
SYMBOL voltage 128 336 R0
WINDOW 123 0 0 Left 2
WINDOW 39 0 0 Left 2
SYMATTR InstName V4
SYMATTR Value -10
TEXT -690 392 Left 2 !.tran .01
TEXT 680 -256 Left 2 !.lib opamp.sub
