Version 4
SHEET 1 3412 2376
WIRE -4880 -224 -4880 -256
WIRE -4608 -224 -4608 -256
WIRE -4880 -96 -4880 -144
WIRE -4608 -96 -4608 -144
WIRE -4192 144 -4224 144
WIRE -4096 144 -4112 144
WIRE -3632 160 -3664 160
WIRE -3536 160 -3552 160
WIRE -3360 192 -3392 192
WIRE -3232 192 -3296 192
WIRE -1568 256 -1632 256
WIRE -1408 256 -1488 256
WIRE -4224 272 -4224 144
WIRE -4224 272 -4256 272
WIRE -4176 272 -4224 272
WIRE -1264 272 -1280 272
WIRE -1088 272 -1184 272
WIRE -4096 288 -4096 144
WIRE -4096 288 -4112 288
WIRE -4032 288 -4096 288
WIRE -3776 288 -3840 288
WIRE -3664 288 -3664 160
WIRE -3664 288 -3696 288
WIRE -3616 288 -3664 288
WIRE -4176 304 -4208 304
WIRE -3536 304 -3536 160
WIRE -3536 304 -3552 304
WIRE -3392 304 -3392 192
WIRE -3392 304 -3456 304
WIRE -3344 304 -3392 304
WIRE -3616 320 -3648 320
WIRE -3232 320 -3232 192
WIRE -3232 320 -3280 320
WIRE -3088 320 -3232 320
WIRE -3344 336 -3376 336
WIRE -1088 336 -1088 272
WIRE -784 336 -1088 336
WIRE -4208 352 -4208 304
WIRE -1632 352 -1632 256
WIRE -1632 352 -2016 352
WIRE -1552 352 -1632 352
WIRE -4256 368 -4256 272
WIRE -3648 368 -3648 320
WIRE -1408 368 -1408 256
WIRE -1408 368 -1488 368
WIRE -1376 368 -1408 368
WIRE -1280 368 -1280 272
WIRE -1280 368 -1296 368
WIRE -1264 368 -1280 368
WIRE -3376 384 -3376 336
WIRE -1552 384 -1568 384
WIRE -1088 384 -1088 336
WIRE -1088 384 -1200 384
WIRE -4928 400 -4928 384
WIRE -3872 400 -3872 384
WIRE -1264 400 -1328 400
WIRE -1024 432 -1024 400
WIRE -1328 448 -1328 400
WIRE -3600 480 -3664 480
WIRE -3488 480 -3520 480
WIRE -1568 496 -1568 384
WIRE -1568 496 -1632 496
WIRE -1440 496 -1568 496
WIRE -2976 512 -3008 512
WIRE -2848 512 -2912 512
WIRE -1440 512 -1440 496
WIRE -1024 544 -1024 512
WIRE -3856 608 -4112 608
WIRE -3664 608 -3664 480
WIRE -3664 608 -3776 608
WIRE -3584 608 -3664 608
WIRE -3488 624 -3488 480
WIRE -3488 624 -3520 624
WIRE -3440 624 -3488 624
WIRE -3152 624 -3248 624
WIRE -3008 624 -3008 512
WIRE -3008 624 -3072 624
WIRE -2960 624 -3008 624
WIRE -3584 640 -3616 640
WIRE -2848 640 -2848 512
WIRE -2848 640 -2896 640
WIRE -2960 656 -2992 656
WIRE -3616 688 -3616 640
WIRE -3664 704 -3664 608
WIRE -3664 704 -3776 704
WIRE -2992 704 -2992 656
WIRE -3280 736 -3280 720
WIRE -3664 800 -3664 704
WIRE -3664 800 -3776 800
WIRE -3584 992 -3648 992
WIRE -3488 992 -3504 992
WIRE -3088 1008 -3120 1008
WIRE -2992 1008 -3008 1008
WIRE -2816 1040 -2848 1040
WIRE -2688 1040 -2752 1040
WIRE -3840 1120 -4112 1120
WIRE -3648 1120 -3648 992
WIRE -3648 1120 -3760 1120
WIRE -3568 1120 -3648 1120
WIRE -3488 1136 -3488 992
WIRE -3488 1136 -3504 1136
WIRE -3424 1136 -3488 1136
WIRE -3120 1136 -3120 1008
WIRE -3120 1136 -3152 1136
WIRE -3072 1136 -3120 1136
WIRE -3568 1152 -3600 1152
WIRE -2992 1152 -2992 1008
WIRE -2992 1152 -3008 1152
WIRE -2848 1152 -2848 1040
WIRE -2848 1152 -2912 1152
WIRE -2800 1152 -2848 1152
WIRE -3072 1168 -3104 1168
WIRE -2688 1168 -2688 1040
WIRE -2688 1168 -2736 1168
WIRE -2800 1184 -2832 1184
WIRE -3600 1200 -3600 1152
WIRE -3648 1216 -3648 1120
WIRE -3648 1216 -3760 1216
WIRE -3104 1216 -3104 1168
WIRE -2832 1232 -2832 1184
WIRE -3264 1248 -3264 1232
FLAG -3376 384 0
FLAG -4880 -96 0
FLAG -4608 -96 0
FLAG -4880 -256 +15v
FLAG -4608 -256 -15v
FLAG -4112 544 +15v
FLAG -4112 736 -15v
FLAG -4928 480 0
FLAG -1440 592 0
FLAG -784 336 MR
IOPIN -784 336 Out
FLAG -1328 448 0
FLAG -4928 384 M
FLAG -1024 400 M
FLAG -1024 624 0
FLAG -4208 352 0
FLAG -3936 384 -15v
FLAG -3936 256 +15v
FLAG -3872 400 0
FLAG -4000 384 M
FLAG -4032 336 X3
FLAG -3344 720 -15v
FLAG -3344 592 +15v
FLAG -3280 736 0
FLAG -3408 720 M
FLAG -3440 672 X3
FLAG -3088 320 X1
FLAG -3648 368 0
FLAG -4336 368 -X2
FLAG -4112 672 0
FLAG -4336 736 X3
FLAG -2992 704 0
FLAG -3616 688 0
FLAG -4336 272 X1
FLAG -4336 672 0
FLAG -4336 544 X1
FLAG -3856 704 X1
FLAG -3856 800 -X2
FLAG -2848 640 -X2
FLAG -4112 1056 +15v
FLAG -4112 1248 -15v
FLAG -4112 1184 0
FLAG -4336 1056 X1
FLAG -4336 1184 -X2
FLAG -4336 1120 0
FLAG -4336 1248 0
FLAG -3600 1200 0
FLAG -3840 1216 X3
FLAG -3328 1232 -15v
FLAG -3328 1104 +15v
FLAG -3264 1248 0
FLAG -3392 1232 M
FLAG -3424 1184 X3
FLAG -2832 1232 0
FLAG -2688 1168 X3
FLAG -4336 608 0
FLAG -3104 1216 0
FLAG -3312 288 +15v
FLAG -3312 352 -15v
FLAG -3584 272 +15v
FLAG -3584 336 -15v
FLAG -4144 256 +15v
FLAG -4144 320 -15v
FLAG -2928 608 +15v
FLAG -2928 672 -15v
FLAG -3552 592 +15v
FLAG -3552 656 -15v
FLAG -2768 1136 +15v
FLAG -2768 1200 -15v
FLAG -3040 1120 +15v
FLAG -3040 1184 -15v
FLAG -3536 1104 +15v
FLAG -3536 1168 -15v
SYMBOL res -3552 320 R270
WINDOW 0 32 56 VTop 2
WINDOW 3 0 56 VBottom 2
SYMATTR InstName R1
SYMATTR Value {R}
SYMATTR SpiceLine tol=1
SYMBOL cap -3360 208 R270
WINDOW 0 32 32 VTop 2
WINDOW 3 0 32 VBottom 2
SYMATTR InstName C1
SYMATTR Value {C}
SYMBOL battery -4880 -240 R0
WINDOW 0 26 97 Left 2
WINDOW 3 -100 59 Left 2
WINDOW 123 0 0 Left 2
WINDOW 39 0 0 Left 2
SYMATTR InstName V1
SYMATTR Value 15v
SYMBOL battery -4608 -240 R0
WINDOW 3 -110 58 Left 2
WINDOW 123 0 0 Left 2
WINDOW 39 0 0 Left 2
SYMATTR Value -15v
SYMATTR InstName V2
SYMBOL DIP8 -4224 640 R0
WINDOW 3 0 -116 Center 2
SYMATTR Value AD633_JT
SYMATTR InstName U1
SYMBOL voltage -4928 384 R0
WINDOW 123 0 0 Left 2
WINDOW 39 0 0 Left 2
SYMATTR InstName V3
SYMATTR Value PULSE(0 5 .1 1u 1u .3 .6 10)
SYMBOL opamp -1520 304 R0
SYMATTR InstName U14
SYMBOL res -2000 336 R90
WINDOW 0 0 56 VBottom 2
WINDOW 3 32 56 VTop 2
SYMATTR InstName R22
SYMATTR Value 10k
SYMBOL res -1616 480 R90
WINDOW 0 0 56 VBottom 2
WINDOW 3 32 56 VTop 2
SYMATTR InstName R23
SYMATTR Value 10k
SYMBOL res -1472 240 R90
WINDOW 0 0 56 VBottom 2
WINDOW 3 32 56 VTop 2
SYMATTR InstName R24
SYMATTR Value 10k
SYMBOL res -1456 496 R0
SYMATTR InstName R25
SYMATTR Value 10k
SYMBOL opamp -1232 320 R0
SYMATTR InstName U15
SYMBOL res -1280 352 R90
WINDOW 0 0 56 VBottom 2
WINDOW 3 32 56 VTop 2
SYMATTR InstName R26
SYMATTR Value 10k
SYMBOL res -1168 256 R90
WINDOW 0 0 56 VBottom 2
WINDOW 3 32 56 VTop 2
SYMATTR InstName R27
SYMATTR Value 100k
SYMBOL res -1040 416 R0
SYMATTR InstName R28
SYMATTR Value 9k
SYMBOL res -1040 528 R0
SYMATTR InstName R29
SYMATTR Value 1k
SYMBOL TSBlock -3952 336 R0
SYMATTR InstName X1
SYMBOL TSBlock -3360 672 R0
SYMATTR InstName X2
SYMBOL res -4096 128 R90
WINDOW 0 0 56 VBottom 2
WINDOW 3 32 56 VTop 2
SYMATTR InstName R2
SYMATTR Value {sig*R2}
SYMBOL res -4240 256 R90
WINDOW 0 0 56 VBottom 2
WINDOW 3 32 56 VTop 2
SYMATTR InstName R8
SYMATTR Value {R2}
SYMBOL res -4240 352 R90
WINDOW 0 0 56 VBottom 2
WINDOW 3 32 56 VTop 2
SYMATTR InstName R9
SYMATTR Value {R2}
SYMBOL res -3536 144 R90
WINDOW 0 0 56 VBottom 2
WINDOW 3 32 56 VTop 2
SYMATTR InstName R10
SYMATTR Value {R2}
SYMBOL res -3680 272 R90
WINDOW 0 0 56 VBottom 2
WINDOW 3 32 56 VTop 2
SYMATTR InstName R11
SYMATTR Value {R2}
SYMBOL res -3168 640 R270
WINDOW 0 32 56 VTop 2
WINDOW 3 0 56 VBottom 2
SYMATTR InstName R12
SYMATTR Value {R}
SYMATTR SpiceLine tol=1
SYMBOL cap -2976 528 R270
WINDOW 0 32 32 VTop 2
WINDOW 3 0 32 VBottom 2
SYMATTR InstName C4
SYMATTR Value {C}
SYMBOL res -3504 464 R90
WINDOW 0 0 56 VBottom 2
WINDOW 3 32 56 VTop 2
SYMATTR InstName R13
SYMATTR Value {R2}
SYMBOL res -3760 592 R90
WINDOW 0 0 56 VBottom 2
WINDOW 3 32 56 VTop 2
SYMATTR InstName R14
SYMATTR Value {R2}
SYMBOL res -3760 688 R90
WINDOW 0 0 56 VBottom 2
WINDOW 3 32 56 VTop 2
SYMATTR InstName R15
SYMATTR Value {R2/beta}
SYMBOL res -3760 784 R90
WINDOW 0 0 56 VBottom 2
WINDOW 3 32 56 VTop 2
SYMATTR InstName R16
SYMATTR Value {R2}
SYMBOL DIP8 -4224 1152 R0
WINDOW 3 0 -116 Center 2
SYMATTR Value AD633_JT
SYMATTR InstName U2
SYMBOL res -3488 976 R90
WINDOW 0 0 56 VBottom 2
WINDOW 3 32 56 VTop 2
SYMATTR InstName R4
SYMATTR Value {R2}
SYMBOL res -3744 1104 R90
WINDOW 0 0 56 VBottom 2
WINDOW 3 32 56 VTop 2
SYMATTR InstName R5
SYMATTR Value {R2}
SYMBOL res -3744 1200 R90
WINDOW 0 0 56 VBottom 2
WINDOW 3 32 56 VTop 2
SYMATTR InstName R6
SYMATTR Value {R2/rho}
SYMBOL TSBlock -3344 1184 R0
SYMATTR InstName X3
SYMBOL res -3008 1168 R270
WINDOW 0 32 56 VTop 2
WINDOW 3 0 56 VBottom 2
SYMATTR InstName R3
SYMATTR Value {R}
SYMATTR SpiceLine tol=1
SYMBOL cap -2816 1056 R270
WINDOW 0 32 32 VTop 2
WINDOW 3 0 32 VBottom 2
SYMATTR InstName C2
SYMATTR Value {C}
SYMBOL res -2992 992 R90
WINDOW 0 0 56 VBottom 2
WINDOW 3 32 56 VTop 2
SYMATTR InstName R7
SYMATTR Value {R2}
SYMBOL res -3136 1120 R90
WINDOW 0 0 56 VBottom 2
WINDOW 3 32 56 VTop 2
SYMATTR InstName R17
SYMATTR Value {R2}
SYMBOL Opamps/LT1057 -3312 256 R0
SYMATTR InstName U3
SYMBOL Opamps/LT1057 -3584 240 R0
SYMATTR InstName U4
SYMBOL Opamps/LT1057 -4144 224 R0
SYMATTR InstName U5
SYMBOL Opamps/LT1057 -2928 576 R0
SYMATTR InstName U6
SYMBOL Opamps/LT1057 -3552 560 R0
SYMATTR InstName U7
SYMBOL Opamps/LT1057 -2768 1104 R0
SYMATTR InstName U8
SYMBOL Opamps/LT1057 -3040 1088 R0
SYMATTR InstName U9
SYMBOL Opamps/LT1057 -3536 1072 R0
SYMATTR InstName U10
TEXT -4440 -336 Left 2 !.tran 0 .5 0 .001 startup
TEXT 1672 -2232 Left 3 !***********************************************************************************\n**** SPICE MODELING OF AD633 by JIM THOMPSON, http://www.analog-innovations.com/ © 2014 ****\n***********************************************************************************\n***** Rudimentary Behavioral Model of Analog Devices AD633 Analog Multiplier ******\n***** Noise, CMRR and Feed-Thru are not modeled\n***********************************************************************************\n*** Per Pin Name X1 X2 Y1 Y2 -VS Z  W +VS ***\n***              |  |  |  |   |  |  |  |  ***\n.SUBCKT AD633_JT 1  2  3  4   5  6  7  8 \nG_GX1        1 5 VALUE { (1+TANH(22*(V(1,5)-2)))/2*V(ITEMP) }\nG_GX2        2 5 VALUE { (1+TANH(22*(V(2,5)-2)))/2*V(ITEMP) }\nG_GY1        3 5 VALUE { (1+TANH(22*(V(3,5)-2)))/2*V(ITEMP) }\nG_GY2        4 5 VALUE { (1+TANH(22*(V(4,5)-2)))/2*V(ITEMP) }\nG_GZ         6 5 VALUE { (1+TANH(22*(V(6,5)-2)))/2*V(ITEMP) }\nRCON_TAG3    7 0 1G\nE_E1         ITEMP 0 VALUE { 1nA*(489.9-2.0842*TEMP+4.3472m*TEMP*TEMP) }\nG_G1         N_1 7 VALUE { 30mA*TANH(450*V(N_2, 7))*V(BOUNDS) }\nC_C1         N_2 0  100pF \nG_GIQ        8 5 VALUE { (1+TANH(22*(V(8,5)-2)))/2*4mA }\nR_RNOF2      7 5  1G \nC_COUT       7 5  5pF \nE_E3         BOUNDS 0 VALUE {\n+  (1+TANH(25*(V(8,7)-2.2)))*(1+TANH(25*(V(7,5)-2.2)))/4 }\nR_R1         WINT N_2  1.59155K \nE_E2         WINT 0 VALUE { V(1,2)*V(3,4)/10+V(6) }\n.MODEL       D D\nD_D1         N_3 N_4 D \nF_F1         N_3 8 VF_F1 1\nVF_F1        8 N_1 0\nD_D2         8 N_3 D \nR_RNOF1      8 7  1G \nF_F2         8 5 VF_F2 1\nVF_F2        N_4 8 0\nC_C2         6 5  4pF \nC_C3         4 5  4pF \nC_C4         3 5  4pF \nC_C5         2 5  4pF \nC_C6         1 5  4pF \n.ENDS   AD633_JT\n***********************************************************************************
TEXT 2064 -1208 Left 3 ;AD633_JT\nPIN ASSIGNMENT\n \nPIN1     X1          PIN5     -Vs\nPIN2     X2          PIN6       Z\nPIN3     Y1          PIN7       W\nPIN4     Y2          PIN8     +Vs
TEXT -4440 -408 Left 2 !.lib opamp.sub
TEXT -4424 -232 Left 2 !.param C = 10n\n.param R = 100k\n.param R2 = 80k\n.param sig = 10\n.param beta = 6\n.param rho = 2
