Version 4
SHEET 1 880 680
WIRE 144 112 144 -48
WIRE 48 144 -432 144
WIRE 352 144 240 144
WIRE 48 192 -192 192
WIRE 272 192 240 192
WIRE -192 272 -192 192
WIRE -192 272 -384 272
WIRE 80 272 80 240
WIRE 80 272 -80 272
WIRE 208 272 208 240
WIRE 272 288 272 272
WIRE -384 304 -384 272
WIRE -80 304 -80 272
WIRE 144 336 144 240
FLAG 352 224 0
FLAG 144 416 0
FLAG -80 384 0
FLAG -432 224 0
FLAG 144 -128 0
FLAG 208 272 0
FLAG -384 384 0
FLAG 272 288 0
SYMBOL voltage -432 128 R0
WINDOW 123 0 0 Left 2
WINDOW 39 0 0 Left 2
SYMATTR InstName V1
SYMATTR Value SINE(0 .1 1000)
SYMBOL voltage -80 288 R0
WINDOW 3 -158 210 Left 2
WINDOW 123 0 0 Left 2
WINDOW 39 0 0 Left 2
SYMATTR Value PULSE(0 5 .0001 .00000001 .00000001 .0001 .002 5)
SYMATTR InstName V2
SYMBOL voltage 144 320 R0
WINDOW 123 0 0 Left 2
WINDOW 39 0 0 Left 2
SYMATTR InstName V3
SYMATTR Value -10
SYMBOL voltage 144 -32 R180
WINDOW 0 24 96 Left 2
WINDOW 3 24 16 Left 2
WINDOW 123 0 0 Left 2
WINDOW 39 0 0 Left 2
SYMATTR InstName V4
SYMATTR Value 10
SYMBOL res 336 128 R0
SYMATTR InstName R1
SYMATTR Value 10k
SYMBOL TSBlock 128 192 R0
SYMATTR InstName X1
SYMBOL voltage -384 288 R0
WINDOW 123 0 0 Left 2
WINDOW 39 0 0 Left 2
SYMATTR InstName V5
SYMATTR Value SINE(0 1 2000)
SYMBOL res 256 176 R0
SYMATTR InstName R2
SYMATTR Value 10k
TEXT -240 520 Left 2 !.tran .001
