Version 4
SHEET 1 880 680
WIRE 352 -96 -240 -96
WIRE 464 -96 432 -96
WIRE 480 -96 464 -96
WIRE 608 -96 560 -96
WIRE 352 32 272 32
WIRE 464 32 464 -96
WIRE 464 32 432 32
WIRE 496 32 464 32
WIRE -96 48 -112 48
WIRE 48 48 -16 48
WIRE 608 48 608 -96
WIRE 608 48 560 48
WIRE 656 48 608 48
WIRE 496 64 480 64
WIRE 144 128 144 48
WIRE -240 144 -240 -96
WIRE -240 144 -272 144
WIRE -224 144 -240 144
WIRE -112 144 -112 48
WIRE -112 144 -144 144
WIRE -80 144 -112 144
WIRE 48 160 48 48
WIRE 48 160 -16 160
WIRE 112 160 48 160
WIRE 272 160 272 32
WIRE 272 160 176 160
WIRE 480 160 480 64
WIRE -80 176 -112 176
WIRE -112 256 -112 176
WIRE 144 336 144 224
FLAG 144 48 Vcc
IOPIN 144 48 In
FLAG 144 336 Vss
IOPIN 144 336 In
FLAG -112 256 GND
IOPIN -112 256 BiDir
FLAG 480 160 GND
IOPIN 480 160 BiDir
FLAG -272 144 IN
IOPIN -272 144 In
FLAG 656 48 OUT
IOPIN 656 48 Out
SYMBOL Dig_Add\\CD4xxx\\cd4066 144 176 R0
SYMATTR InstName U1
SYMBOL Opamps\\opamp -48 96 R0
SYMATTR InstName U2
SYMBOL Opamps\\opamp 528 -16 R0
SYMATTR InstName U4
SYMBOL res 448 16 R90
WINDOW 0 0 56 VBottom 2
WINDOW 3 32 56 VTop 2
SYMATTR InstName R1
SYMATTR Value 5k
SYMBOL res 448 -112 R90
WINDOW 0 0 56 VBottom 2
WINDOW 3 32 56 VTop 2
SYMATTR InstName R2
SYMATTR Value 600k
SYMBOL res -128 128 R90
WINDOW 0 0 56 VBottom 2
WINDOW 3 32 56 VTop 2
SYMATTR InstName R3
SYMATTR Value 10k
SYMBOL res 0 32 R90
WINDOW 0 0 56 VBottom 2
WINDOW 3 32 56 VTop 2
SYMATTR InstName R4
SYMATTR Value 10k
SYMBOL res 576 -112 R90
WINDOW 0 0 56 VBottom 2
WINDOW 3 32 56 VTop 2
SYMATTR InstName R5
SYMATTR Value 10k
TEXT -168 -136 Left 2 !.lib opamp.sub
