Version 4
SHEET 1 1092 680
WIRE 912 -464 912 -496
WIRE 1008 -464 1008 -496
WIRE 1008 -464 912 -464
WIRE 912 -448 912 -464
WIRE 1008 -448 1008 -464
WIRE 160 112 -320 112
WIRE 672 144 288 144
WIRE 672 160 672 144
WIRE 384 208 288 208
FLAG 288 176 Vss
FLAG 1008 -368 Vss
FLAG 160 208 Vcc
FLAG 1008 -576 Vcc
FLAG 912 -448 0
FLAG 160 176 0
FLAG 912 -576 Vl
FLAG 288 112 Vl
FLAG 384 288 0
FLAG 672 240 0
FLAG -320 192 0
SYMBOL AutoGenerated\\MAX317 224 160 R0
SYMATTR InstName U1
SYMBOL voltage 1008 -592 R0
WINDOW 123 0 0 Left 2
WINDOW 39 0 0 Left 2
SYMATTR InstName V1
SYMATTR Value 15
SYMBOL voltage 1008 -464 R0
WINDOW 123 0 0 Left 2
WINDOW 39 0 0 Left 2
SYMATTR InstName V2
SYMATTR Value 15
SYMBOL voltage -320 96 R0
WINDOW 123 0 0 Left 2
WINDOW 39 0 0 Left 2
SYMATTR InstName V3
SYMATTR Value SINE(0 9 1k)
SYMBOL voltage 672 144 R0
WINDOW 123 0 0 Left 2
WINDOW 39 0 0 Left 2
SYMATTR InstName V4
SYMATTR Value PULSE(0 5 0 1p 1p .2m .4m 10)
SYMBOL voltage 912 -592 R0
WINDOW 123 0 0 Left 2
WINDOW 39 0 0 Left 2
SYMATTR InstName V5
SYMATTR Value 5
SYMBOL res 368 192 R0
SYMATTR InstName R1
SYMATTR Value 10k
TEXT -354 312 Left 2 !.tran .002
