Version 4
SHEET 1 888 960
WIRE 432 208 368 208
WIRE 592 208 496 208
WIRE 208 336 64 336
WIRE 256 336 208 336
WIRE 368 336 368 208
WIRE 368 336 336 336
WIRE 400 336 368 336
WIRE 64 352 64 336
WIRE 368 400 336 400
WIRE 400 400 368 400
WIRE 592 400 592 208
WIRE 592 400 528 400
WIRE 656 400 592 400
WIRE 336 432 336 400
WIRE 448 720 384 720
WIRE 608 720 512 720
WIRE 208 816 208 336
WIRE 304 816 208 816
WIRE 384 816 384 720
WIRE 464 816 384 816
WIRE 608 832 608 720
WIRE 608 832 528 832
WIRE 672 832 608 832
WIRE 464 848 384 848
WIRE 384 944 384 848
FLAG 96 176 0
FLAG 0 176 0
FLAG 64 432 0
FLAG 336 432 0
FLAG 96 96 Vss
FLAG 528 368 Vss
FLAG 0 96 Vcc
FLAG 528 336 Vcc
FLAG 656 400 out
FLAG 64 336 IN
FLAG 384 944 0
FLAG 672 832 ideal
FLAG 368 480 Vss
FLAG 496 864 Vss
FLAG 496 800 Vcc
SYMBOL AutoGenerated/LF353 464 368 R0
SYMATTR InstName U1
SYMBOL voltage 64 336 R0
SYMATTR InstName V1
SYMATTR Value SINE(0 100m 1k)
SYMBOL voltage 0 80 R0
SYMATTR InstName V2
SYMATTR Value 15
SYMBOL voltage 96 80 R0
SYMATTR InstName V3
SYMATTR Value -15
SYMBOL res 352 320 R90
WINDOW 0 0 56 VBottom 2
WINDOW 3 32 56 VTop 2
SYMATTR InstName R1
SYMATTR Value 100k
SYMBOL cap 496 192 R90
WINDOW 0 0 32 VBottom 2
WINDOW 3 32 32 VTop 2
SYMATTR InstName C1
SYMATTR Value .1n
SYMBOL cap 512 704 R90
WINDOW 0 0 32 VBottom 2
WINDOW 3 32 32 VTop 2
SYMATTR InstName C2
SYMATTR Value .1n
SYMBOL res 400 800 R90
WINDOW 0 0 56 VBottom 2
WINDOW 3 32 56 VTop 2
SYMATTR InstName R4
SYMATTR Value 100k
SYMBOL res 352 384 R0
SYMATTR InstName R2
SYMATTR Value 100k
SYMBOL Opamps/LT1057 496 768 R0
SYMATTR InstName U3
TEXT 600 136 Left 2 !.tran .004
TEXT 640 32 Left 2 !.lib opamp.sub
