Version 4
SHEET 1 880 680
WIRE 288 272 -16 272
WIRE 288 288 128 288
WIRE -16 320 -16 272
WIRE 128 320 128 288
WIRE 400 320 368 320
WIRE 400 336 400 320
FLAG 128 400 0
FLAG -16 400 0
FLAG 400 416 0
SYMBOL voltage 128 304 R0
WINDOW 3 28 172 Left 2
SYMATTR InstName V2
SYMATTR Value PULSE(0 5 1 .0000001 .0000001 1 2 10)
SYMBOL res 384 320 R0
SYMATTR InstName R1
SYMATTR Value 10k
SYMBOL voltage -16 304 R0
WINDOW 3 -89 -276 Left 2
SYMATTR InstName V1
SYMATTR Value PULSE(0 5 .5 .0000001 .0000001 .5 1 10)
SYMBOL Digital/xor 336 240 R0
SYMATTR InstName A1
TEXT 200 176 Left 2 !.tran 5
