Version 4
SHEET 1 3796 844
WIRE 2896 -512 2896 -544
WIRE 2976 -512 2896 -512
WIRE 1344 -480 1328 -480
WIRE 2896 -480 2896 -512
WIRE 2976 -480 2976 -512
WIRE 2512 -272 2480 -272
WIRE 2640 -272 2592 -272
WIRE 2336 -160 2224 -160
WIRE 2480 -160 2480 -272
WIRE 2480 -160 2416 -160
WIRE 2512 -160 2480 -160
WIRE 1328 -144 1328 -480
WIRE 1328 -144 1200 -144
WIRE 1472 -144 1328 -144
WIRE 2224 -144 2224 -160
WIRE 2224 -144 1472 -144
WIRE 2640 -144 2640 -272
WIRE 2640 -144 2576 -144
WIRE 3248 -144 2640 -144
WIRE 2512 -128 2480 -128
WIRE 2480 -96 2480 -128
WIRE 3248 0 3248 -144
WIRE 3344 0 3248 0
WIRE 3488 0 3424 0
WIRE 3552 0 3488 0
WIRE 3680 0 3632 0
WIRE 2528 64 2496 64
WIRE 2656 64 2608 64
WIRE 1472 96 1472 -144
WIRE 1472 96 1024 96
WIRE 3344 96 3296 96
WIRE 3488 96 3488 0
WIRE 3488 96 3424 96
WIRE 3552 96 3488 96
WIRE 3680 112 3680 0
WIRE 3680 112 3616 112
WIRE 3552 128 3520 128
WIRE 3520 160 3520 128
WIRE 2224 176 2224 -144
WIRE 2352 176 2224 176
WIRE 2496 176 2496 64
WIRE 2496 176 2432 176
WIRE 2528 176 2496 176
WIRE 2656 192 2656 64
WIRE 2656 192 2592 192
WIRE 3152 192 2656 192
WIRE 3296 192 3296 96
WIRE 3296 192 3216 192
WIRE 2528 208 2496 208
WIRE 3152 224 2896 224
WIRE 2496 240 2496 208
WIRE 1408 384 1408 352
WIRE 1408 384 1280 384
WIRE 1280 448 1280 384
WIRE 2896 448 2896 224
WIRE 2384 464 1664 464
WIRE 2384 496 2384 464
WIRE 2464 496 2384 496
WIRE 2464 512 2384 512
WIRE 2896 544 2896 448
WIRE 2896 544 2544 544
WIRE 1024 560 1024 96
WIRE 1200 560 1024 560
WIRE 1232 560 1200 560
WIRE 1408 576 1408 384
WIRE 1408 576 1312 576
WIRE 1472 576 1408 576
WIRE 1664 576 1664 464
WIRE 1664 576 1536 576
WIRE 1760 576 1664 576
WIRE 1232 592 1152 592
WIRE 1664 592 1664 576
WIRE 1760 592 1760 576
WIRE 2384 624 2384 512
WIRE 2384 624 2176 624
WIRE 1152 640 1152 592
WIRE 1280 672 1280 624
WIRE 1664 688 1664 672
WIRE 1760 688 1760 656
WIRE 1760 688 1664 688
WIRE 1664 704 1664 688
FLAG 1200 -64 0
FLAG 2976 -480 0
FLAG 2896 -624 Vcc
FLAG 2896 -400 Vss
FLAG 3680 112 OUT
IOPIN 3680 112 Out
FLAG 1408 272 Vcc
FLAG 1264 528 Vcc
FLAG 1280 736 Vcc
FLAG 3184 160 Vcc
FLAG 1264 624 Vss
FLAG 3184 256 Vss
FLAG 2176 624 0
FLAG 3520 160 0
FLAG 2480 -96 0
FLAG 2496 240 0
FLAG 2896 624 0
FLAG 1664 704 0
FLAG 1248 624 0
FLAG 1152 640 0
FLAG 2896 448 TEST
IOPIN 2896 448 Out
FLAG 1200 480 0
SYMBOL voltage 1200 -160 R0
WINDOW 123 0 0 Left 2
WINDOW 39 0 0 Left 2
SYMATTR InstName V1
SYMATTR Value SINE(0 1 1k)
SYMBOL voltage 2896 -640 R0
WINDOW 123 0 0 Left 2
WINDOW 39 0 0 Left 2
SYMATTR InstName V2
SYMATTR Value 9
SYMBOL voltage 2896 -496 R0
WINDOW 123 0 0 Left 2
WINDOW 39 0 0 Left 2
SYMATTR InstName V3
SYMATTR Value 9
SYMBOL LT1011 1264 576 R0
SYMATTR InstName U1
SYMBOL res 1392 256 R0
SYMATTR InstName R3
SYMATTR Value 8k
SYMBOL res 1648 576 R0
SYMATTR InstName R4
SYMATTR Value 10k
SYMBOL cap 1264 672 R0
SYMATTR InstName C1
SYMATTR Value .003µ
SYMBOL res 1264 432 R0
SYMATTR InstName R5
SYMATTR Value 1000k
SYMBOL diode 1472 592 R270
WINDOW 0 32 32 VTop 2
WINDOW 3 0 32 VBottom 2
SYMATTR InstName D1
SYMATTR Value 1N4148
SYMBOL cd4066 3184 208 R0
SYMATTR InstName U2
SYMBOL res 2880 528 R0
SYMATTR InstName R6
SYMATTR Value 10k
SYMBOL diode 1776 656 R180
WINDOW 0 24 64 Left 2
WINDOW 3 24 0 Left 2
SYMATTR InstName D2
SYMATTR Value 1N4148
SYMBOL opamp 2544 -208 R0
SYMATTR InstName U3
SYMBOL opamp 3584 48 R0
SYMATTR InstName U4
SYMBOL res 3440 80 R90
WINDOW 0 0 56 VBottom 2
WINDOW 3 32 56 VTop 2
SYMATTR InstName R7
SYMATTR Value 10k
SYMBOL res 3440 -16 R90
WINDOW 0 0 56 VBottom 2
WINDOW 3 32 56 VTop 2
SYMATTR InstName R8
SYMATTR Value 10k
SYMBOL res 3648 -16 R90
WINDOW 0 0 56 VBottom 2
WINDOW 3 32 56 VTop 2
SYMATTR InstName R9
SYMATTR Value 10k
SYMBOL res 2432 -176 R90
WINDOW 0 0 56 VBottom 2
WINDOW 3 32 56 VTop 2
SYMATTR InstName R10
SYMATTR Value 10k
SYMBOL res 2608 -288 R90
WINDOW 0 0 56 VBottom 2
WINDOW 3 32 56 VTop 2
SYMATTR InstName R11
SYMATTR Value 7.5k
SYMBOL opamp 2560 128 R0
SYMATTR InstName U5
SYMBOL res 2448 160 R90
WINDOW 0 0 56 VBottom 2
WINDOW 3 32 56 VTop 2
SYMATTR InstName R12
SYMATTR Value 10k
SYMBOL res 2624 48 R90
WINDOW 0 0 56 VBottom 2
WINDOW 3 32 56 VTop 2
SYMATTR InstName R13
SYMATTR Value 3k
SYMBOL Digital/xor 2512 464 R0
SYMATTR InstName A1
SYMBOL res 1184 464 R0
SYMATTR InstName R14
SYMATTR Value 100k
SYMBOL MAX317 1456 -512 R0
SYMATTR InstName X1
TEXT 1166 64 Left 2 !.tran .002
TEXT 1504 776 Left 2 !.lib opamp.sub
