Version 4
SHEET 1 1348 680
WIRE 64 -464 32 -464
WIRE 192 -464 144 -464
WIRE -112 -352 -224 -352
WIRE 32 -352 32 -464
WIRE 32 -352 -32 -352
WIRE 64 -352 32 -352
WIRE 192 -336 192 -464
WIRE 192 -336 128 -336
WIRE 800 -336 192 -336
WIRE 64 -320 32 -320
WIRE 32 -288 32 -320
WIRE -224 -192 -224 -352
WIRE 800 -192 800 -336
WIRE 896 -192 800 -192
WIRE 1040 -192 976 -192
WIRE 1104 -192 1040 -192
WIRE 1232 -192 1184 -192
WIRE 80 -128 48 -128
WIRE 208 -128 160 -128
WIRE 896 -96 848 -96
WIRE 1040 -96 1040 -192
WIRE 1040 -96 976 -96
WIRE 1104 -96 1040 -96
WIRE 1232 -80 1232 -192
WIRE 1232 -80 1168 -80
WIRE 1104 -64 1072 -64
WIRE 1072 -32 1072 -64
WIRE -224 -16 -224 -192
WIRE -96 -16 -224 -16
WIRE 48 -16 48 -128
WIRE 48 -16 -16 -16
WIRE 80 -16 48 -16
WIRE 208 0 208 -128
WIRE 208 0 144 0
WIRE 704 0 208 0
WIRE 848 0 848 -96
WIRE 848 0 768 0
WIRE 80 16 48 16
WIRE 704 32 448 32
WIRE 48 48 48 16
WIRE -1040 192 -1040 160
WIRE -1040 192 -1168 192
WIRE -1168 256 -1168 192
WIRE 448 256 448 32
WIRE -192 272 -784 272
WIRE 32 272 -192 272
WIRE 176 288 144 288
WIRE 32 304 -16 304
WIRE -192 336 -192 272
WIRE -128 336 -192 336
WIRE 176 336 176 288
WIRE 224 336 176 336
WIRE -16 352 -16 304
WIRE 448 352 448 256
WIRE 448 352 336 352
WIRE -128 368 -192 368
WIRE 224 368 176 368
WIRE -1040 384 -1040 192
WIRE -1040 384 -1136 384
WIRE -976 384 -1040 384
WIRE -784 384 -784 272
WIRE -784 384 -912 384
WIRE -688 384 -784 384
WIRE -1216 400 -1296 400
WIRE -784 400 -784 384
WIRE -688 400 -688 384
WIRE -16 400 -16 352
WIRE 32 400 -16 400
WIRE 176 416 176 368
WIRE 176 416 144 416
WIRE -192 432 -192 368
WIRE -192 432 -272 432
WIRE 32 432 -192 432
WIRE -1296 448 -1296 400
WIRE -1168 480 -1168 432
WIRE -784 496 -784 480
WIRE -688 496 -688 464
WIRE -688 496 -784 496
WIRE -784 512 -784 496
FLAG -224 -192 IN
IOPIN -224 -192 In
FLAG 1232 -80 OUT
IOPIN 1232 -80 Out
FLAG -1040 80 Vcc
IOPIN -1040 80 In
FLAG -1184 336 Vcc
IOPIN -1184 336 In
FLAG -1168 544 Vcc
IOPIN -1168 544 In
FLAG 736 -32 Vcc
IOPIN 736 -32 In
FLAG -1184 432 Vss
IOPIN -1184 432 In
FLAG 736 64 Vss
IOPIN 736 64 In
FLAG -272 432 MSG
IOPIN -272 432 In
FLAG 848 64 GND
IOPIN 848 64 BiDir
FLAG 1072 -32 GND
IOPIN 1072 -32 BiDir
FLAG 32 -288 GND
IOPIN 32 -288 BiDir
FLAG 48 48 GND
IOPIN 48 48 BiDir
FLAG 448 432 GND
IOPIN 448 432 BiDir
FLAG -784 512 GND
IOPIN -784 512 BiDir
FLAG -1200 432 GND
IOPIN -1200 432 BiDir
FLAG -1296 448 GND
IOPIN -1296 448 BiDir
FLAG -1216 368 X3
IOPIN -1216 368 In
FLAG 448 256 TEST
IOPIN 448 256 Out
SYMBOL Comparators\\LT1011 -1184 384 R0
SYMATTR InstName U1
SYMBOL res -1056 64 R0
SYMATTR InstName R2
SYMATTR Value 20k
SYMBOL res -800 384 R0
SYMATTR InstName R1
SYMATTR Value 10k
SYMBOL cap -1184 480 R0
SYMATTR InstName C1
SYMATTR Value .003µ
SYMBOL res -1184 240 R0
SYMATTR InstName R3
SYMATTR Value 1000k
SYMBOL diode -976 400 R270
WINDOW 0 32 32 VTop 2
WINDOW 3 0 32 VBottom 2
SYMATTR InstName D1
SYMATTR Value 1N4148
SYMBOL Dig_Add\\CD4xxx\\cd4066 736 16 R0
SYMATTR InstName U2
SYMBOL res 432 336 R0
SYMATTR InstName R4
SYMATTR Value 10k
SYMBOL EXTRA\\74HC\\74hc02 -80 288 R0
SYMATTR InstName U3
SYMBOL EXTRA\\74HC\\74hc02 80 224 R0
SYMATTR InstName U4
SYMBOL EXTRA\\74HC\\74hc02 80 352 R0
SYMATTR InstName U5
SYMBOL EXTRA\\74HC\\74hc02 272 288 R0
SYMATTR InstName U6
SYMBOL diode -672 464 R180
WINDOW 0 24 64 Left 2
WINDOW 3 24 0 Left 2
SYMATTR InstName D2
SYMATTR Value 1N4148
SYMBOL Opamps\\opamp 96 -400 R0
SYMATTR InstName U7
SYMBOL Opamps\\opamp 1136 -144 R0
SYMATTR InstName U9
SYMBOL res 992 -112 R90
WINDOW 0 0 56 VBottom 2
WINDOW 3 32 56 VTop 2
SYMATTR InstName R5
SYMATTR Value 10k
SYMBOL res 992 -208 R90
WINDOW 0 0 56 VBottom 2
WINDOW 3 32 56 VTop 2
SYMATTR InstName R6
SYMATTR Value 10k
SYMBOL res 1200 -208 R90
WINDOW 0 0 56 VBottom 2
WINDOW 3 32 56 VTop 2
SYMATTR InstName R7
SYMATTR Value 10k
SYMBOL res -16 -368 R90
WINDOW 0 0 56 VBottom 2
WINDOW 3 32 56 VTop 2
SYMATTR InstName R8
SYMATTR Value 10k
SYMBOL res 160 -480 R90
WINDOW 0 0 56 VBottom 2
WINDOW 3 32 56 VTop 2
SYMATTR InstName R9
SYMATTR Value 7.5k
SYMBOL Opamps\\opamp 112 -64 R0
SYMATTR InstName U8
SYMBOL res 0 -32 R90
WINDOW 0 0 56 VBottom 2
WINDOW 3 32 56 VTop 2
SYMATTR InstName R10
SYMATTR Value 10k
SYMBOL res 176 -144 R90
WINDOW 0 0 56 VBottom 2
WINDOW 3 32 56 VTop 2
SYMATTR InstName R11
SYMATTR Value 3k
SYMBOL cap 832 0 R0
SYMATTR InstName C2
SYMATTR Value 10p
TEXT -1888 8 Left 2 !.lib opamp.sub
TEXT -944 584 Left 2 !.tran .1
